Package: CSLSscenarios
Type: Package
Title: CSLS MODFLOW Scenario Analysis
Version: 0.1.0
Author: Carolyn Voter
Maintainer: Carolyn Voter <cvoter@wisc.edu>
Description: Analyze MODFLOW scenarios for average seasonal water levels and significant (ecological) impact.
License: MIT + file LICENSE
Encoding: UTF-8
LazyData: true
Depends:
    R (>= 2.10)
Imports:
    CSLSdata,
    dplyr,
    knitr,
    lubridate,
    magrittr,
    raster,
    reshape2,
    rlang,
    stats,
    stringr,
    NISTunits
Suggests:
    rmarkdown,
    extrafont,
    ggplot2,
    patchwork
VignetteBuilder: knitr
RoxygenNote: 7.1.1
Roxygen: list(markdown = TRUE)
